TITLE Simple pH 7 solution
SOLUTION 1
    pH 7
    temp 25
END
